Version 4
SHEET 1 880 680
WIRE 144 80 64 80
WIRE 384 80 144 80
WIRE 144 144 144 80
WIRE 384 176 384 80
WIRE 64 192 64 80
WIRE 240 240 144 240
WIRE 384 240 384 208
WIRE 384 240 240 240
FLAG 240 240 0
SYMBOL EXTRA\\Philips\\NMOSFET\\2N7000 112 192 R0
SYMATTR InstName U1
SYMBOL LargeCollection\\LTspiceIV\\examples\\LtSpicePlus\\Analisis\\Meas\\Measurement\ of\ Subcircuits\\voltage_0 384 160 R0
WINDOW 123 0 0 Left 2
WINDOW 39 0 0 Left 2
SYMATTR InstName V1
SYMATTR Value 5
TEXT 0 392 Left 2 !.dc V1 0 2.1 0.05
