Version 4
SHEET 1 880 680
WIRE 400 96 144 96
WIRE 64 144 -112 144
WIRE -112 272 -112 144
FLAG 400 128 0
FLAG 144 192 0
FLAG -112 304 0
SYMBOL LargeCollection\\LTspiceIV\\examples\\LtSpicePlus\\Analisis\\Meas\\Measurement\ of\ Subcircuits\\voltage_0 -112 256 R0
WINDOW 123 0 0 Left 2
WINDOW 39 0 0 Left 2
SYMATTR InstName V1
SYMATTR Value 5
SYMBOL LargeCollection\\LTspiceIV\\examples\\LtSpicePlus\\Analisis\\Meas\\Measurement\ of\ Subcircuits\\voltage_0 400 80 R0
SYMATTR InstName V2
SYMBOL EXTRA\\Philips\\NMOSFET\\2N7000 112 144 R0
SYMATTR InstName U1
TEXT -56 312 Left 2 !.dc V1 1.7 2.1 0.1 V2 0 5 0.05
