Version 4
SHEET 1 880 680
WIRE 416 -16 112 -16
WIRE 560 -16 416 -16
WIRE 416 96 416 64
WIRE 416 96 288 96
WIRE 448 96 416 96
WIRE -48 144 -128 144
WIRE 112 144 112 64
WIRE 112 144 16 144
WIRE 208 144 112 144
WIRE 560 208 560 -16
WIRE 112 224 112 144
WIRE -128 288 -128 144
WIRE 176 304 112 304
WIRE 288 304 288 192
WIRE 288 304 176 304
FLAG -128 320 0
FLAG 176 304 0
FLAG 560 240 0
SYMBOL EXTRA\\Philips\\NMOSFET\\2N7000 256 144 R0
SYMATTR InstName U1
SYMBOL res 96 -32 R0
SYMATTR InstName R1
SYMATTR Value 100k
SYMBOL res 96 208 R0
SYMATTR InstName R2
SYMATTR Value 30k
SYMBOL res 400 -32 R0
SYMATTR InstName R3
SYMATTR Value 1.5k
SYMBOL cap 512 80 R90
WINDOW 0 0 32 VBottom 2
WINDOW 3 32 32 VTop 2
SYMATTR InstName C1
SYMATTR Value 10µ
SYMBOL cap 16 128 R90
WINDOW 0 0 32 VBottom 2
WINDOW 3 32 32 VTop 2
SYMATTR InstName C2
SYMATTR Value 10µ
SYMBOL LargeCollection\\LTspiceIV\\examples\\LtSpicePlus\\Analisis\\Meas\\Measurement\ of\ Subcircuits\\voltage_0 -128 272 R0
WINDOW 123 0 0 Left 2
WINDOW 39 0 0 Left 2
SYMATTR InstName V1
SYMATTR Value SINE(0 20m 1k)
SYMBOL LargeCollection\\LTspiceIV\\examples\\LtSpicePlus\\Analisis\\Meas\\Measurement\ of\ Subcircuits\\voltage_0 560 192 R0
WINDOW 123 0 0 Left 2
WINDOW 39 0 0 Left 2
SYMATTR InstName V2
SYMATTR Value 5
TEXT -148 344 Left 2 !.tran 10m
